[Format]      =  4.0
[Frequency]   =  0
[Precision]   =  1e-008
[MinAngle]    =  30
[Depth]       =  70
[LengthUnits] =  millimeters
[ProblemType] =  planar
[Coordinates] =  cartesian
[ACSolver]    =  0
[PrevSoln]    =  ""
[Comment]     =  "Add comments here."
[PointProps]   = 0
[BdryProps]   = 4
  <BeginBdry>
    <BdryName> = "Outer"
    <BdryType> = 0
    <A_0> = 0
    <A_1> = 0
    <A_2> = 0
    <Phi> = 0
    <c0> = 0
    <c0i> = 0
    <c1> = 0
    <c1i> = 0
    <Mu_ssd> = 0
    <Sigma_ssd> = 0
  <EndBdry>
  <BeginBdry>
    <BdryName> = "Periodic 1"
    <BdryType> = 5
    <A_0> = 0
    <A_1> = 0
    <A_2> = 0
    <Phi> = 0
    <c0> = 0
    <c0i> = 0
    <c1> = 0
    <c1i> = 0
    <Mu_ssd> = 0
    <Sigma_ssd> = 0
  <EndBdry>
  <BeginBdry>
    <BdryName> = "Periodic 2"
    <BdryType> = 5
    <A_0> = 0
    <A_1> = 0
    <A_2> = 0
    <Phi> = 0
    <c0> = 0
    <c0i> = 0
    <c1> = 0
    <c1i> = 0
    <Mu_ssd> = 0
    <Sigma_ssd> = 0
  <EndBdry>
  <BeginBdry>
    <BdryName> = "Periodic 3"
    <BdryType> = 5
    <A_0> = 0
    <A_1> = 0
    <A_2> = 0
    <Phi> = 0
    <c0> = 0
    <c0i> = 0
    <c1> = 0
    <c1i> = 0
    <Mu_ssd> = 0
    <Sigma_ssd> = 0
  <EndBdry>
[BlockProps]  = 4
  <BeginBlock>
    <BlockName> = "M250_35A"
    <Mu_x> = 1
    <Mu_y> = 1
    <H_c> = 0
    <H_cAngle> = 0
    <J_re> = 0
    <J_im> = 0
    <Sigma> = 0
    <d_lam> = 0
    <Phi_h> = 0
    <Phi_hx> = 0
    <Phi_hy> = 0
    <LamType> = 0
    <LamFill> = 0.94999999999999996
    <NStrands> = 0
    <WireD> = 0
    <BHPoints> = 300
      0	0
      0.01	2.6808895441601801
      0.02	5.3669820248490803
      0.029999999999999999	8.0627706183227801
      0.040000000000000001	10.771151095774099
      0.050000000000000003	13.492178409505801
      0.059999999999999998	16.221289625550099
      0.070000000000000007	18.946815318215702
      0.080000000000000002	21.646601542044799
      0.089999999999999997	24.283564496662599
      0.10000000000000001	26.800000000000001
      0.11	29.134664358400698
      0.12	31.243074659431802
      0.13	33.077404946488997
      0.14000000000000001	34.601427847466603
      0.14999999999999999	35.799276628522499
      0.16	36.686078169055399
      0.17000000000000001	37.320600774912101
      0.17999999999999999	37.820060746841399
      0.19	38.377231621210399
      0.20000000000000001	39.280000000000001
      0.20999999999999999	40.442648767056497
      0.22	41.536731327409498
      0.23000000000000001	42.5719774203952
      0.23999999999999999	43.560385318323597
      0.25	44.516428420138702
      0.26000000000000001	45.457275642216203
      0.27000000000000002	46.403026206173898
      0.28000000000000003	47.376959423568799
      0.28999999999999998	48.4058000773583
      0.29999999999999999	49.520000000000003
      0.31	50.657312942978301
      0.32000000000000001	51.735394871760199
      0.33000000000000002	52.7591831056655
      0.34000000000000002	53.736102092858602
      0.34999999999999998	54.676427842286898
      0.35999999999999999	55.593678821079898
      0.37	56.5050341193934
      0.38	57.431779684682198
      0.39000000000000001	58.399783427383902
      0.40000000000000002	59.439999999999998
      0.40999999999999998	60.510639537005098
      0.41999999999999998	61.5488583931023
      0.42999999999999999	62.559045901186401
      0.44	63.546873613762898
      0.45000000000000001	64.519433898166596
      0.46000000000000002	65.485386159980195
      0.46999999999999997	66.455110872053794
      0.47999999999999998	67.440871586526498
      0.48999999999999999	68.456985107247803
      0.5	69.519999999999996
      0.51000000000000001	70.601643076544306
      0.52000000000000002	71.663753332236894
      0.53000000000000003	72.710456426271506
      0.54000000000000004	73.746769353568695
      0.55000000000000004	74.778678037346197
      0.56000000000000005	75.8132183760614
      0.56999999999999995	76.858560809901604
      0.57999999999999996	77.924098471998803
      0.58999999999999997	79.020538989547504
      0.59999999999999998	80.159999999999997
      0.60999999999999999	81.319707340231304
      0.62	82.469933268099894
      0.63	83.613872051935999
      0.64000000000000001	84.755269527381699
      0.65000000000000002	85.898463297448203
      0.66000000000000003	87.048424435155695
      0.67000000000000004	88.210800712607394
      0.68000000000000005	89.3919613803467
      0.68999999999999995	90.599043520849406
      0.69999999999999996	91.840000000000003
      0.70999999999999996	93.102253889705395
      0.71999999999999997	94.368507758633697
      0.72999999999999998	95.640403806966603
      0.73999999999999999	96.919763861225505
      0.75	98.208599722321395
      0.76000000000000001	99.509123838567106
      0.77000000000000002	100.823760308102
      0.78000000000000003	102.15515621518399
      0.79000000000000004	103.506193304791
      0.80000000000000004	104.88
      0.81000000000000005	106.28423528115199
      0.81999999999999995	107.723575882864
      0.82999999999999996	109.196586019693
      0.83999999999999997	110.70143285789101
      0.84999999999999998	112.235861658472
      0.85999999999999999	113.797170192474
      0.87	115.382182419629
      0.88	116.987221421694
      0.89000000000000001	118.608081581645
      0.90000000000000002	120.23999999999999
      0.91000000000000003	121.90572586416999
      0.92000000000000004	123.630380270909
      0.93000000000000005	125.411971001905
      0.93999999999999995	127.24801557905199
      0.94999999999999996	129.135513994799
      0.95999999999999996	131.07092073092201
      0.96999999999999997	133.05011605804199
      0.97999999999999998	135.068376608253
      0.98999999999999999	137.120345213208
      1	139.19999999999999
      1.01	141.35372513542799
      1.02	143.629193887859
      1.03	146.02109383440501
      1.04	148.523132385601
      1.05	151.12798857190799
      1.0600000000000001	153.82726370033501
      1.0700000000000001	156.61143087022501
      1.0800000000000001	159.46978333722299
      1.0900000000000001	162.39038171446299
      1.1000000000000001	165.36000000000001
      1.1100000000000001	168.510530390301
      1.1200000000000001	171.97028020492499
      1.1299999999999999	175.71751346756901
      1.1399999999999999	179.727546959949
      1.1499999999999999	183.972621788205
      1.1599999999999999	188.42177222612
      1.1699999999999999	193.04069181107999
      1.1799999999999999	197.79159666865499
      1.1899999999999999	202.633086041719
      1.2	207.52000000000001
      1.21	212.930034690394
      1.22	219.33413335337701
      1.23	226.668218624102
      1.24	234.86011469606501
      1.25	243.82922219309
      1.26	253.48618670466399
      1.27	263.732560933066
      1.28	274.460460400805
      1.29	285.55221266682997
      1.3	296.88
      1.3100000000000001	311.08555920607398
      1.3200000000000001	330.72954091457501
      1.3300000000000001	355.52908010883698
      1.3400000000000001	385.16615141589602
      1.3500000000000001	419.28625122276497
      1.3600000000000001	457.49705598476498
      1.3700000000000001	499.36705654691002
      1.3799999999999999	544.42416829933495
      1.3899999999999999	592.15431698776194
      1.3999999999999999	642.00000000000102
      1.4099999999999999	701.347281053144
      1.4199999999999999	777.23647472450898
      1.4299999999999999	868.47053209360001
      1.4399999999999999	973.73254858840301
      1.45	1091.5816808750201
      1.46	1220.4489955566401
      1.47	1358.6332492050301
      1.48	1504.2965992475899
      1.49	1655.4602452332099
      1.5	1810
      1.51	1973.77943565889
      1.52	2153.5456947336602
      1.53	2348.32143149698
      1.54	2557.0379683751598
      1.55	2778.53239633164
      1.5600000000000001	3011.5446300293002
      1.5700000000000001	3254.71441747586
      1.5800000000000001	3506.5783038568602
      1.5900000000000001	3765.56654926069
      1.6000000000000001	4029.99999999999
      1.6100000000000001	4303.39546098547
      1.6200000000000001	4590.1192590348501
      1.6299999999999999	4889.6464437945997
      1.6399999999999999	5201.4027382878403
      1.6499999999999999	5524.7630604343403
      1.6599999999999999	5859.0500228967703
      1.6699999999999999	6203.5324111202399
      1.6799999999999999	6557.4236394321497
      1.6899999999999999	6919.8801850694099
      1.7	7290
      1.71	7669.9714774140202
      1.72	8062.7887340911402
      1.73	8468.7155086490802
      1.74	8888.0182854990107
      1.75	9320.9662947155794
      1.76	9767.8315116269896
      1.77	10228.8886561236
      1.78	10704.4151916834
      1.79	11194.6913241125
      1.8	11700
      1.8100000000000001	12227.4938779726
      1.8200000000000001	12784.759551715
      1.8300000000000001	13372.7475849772
      1.8400000000000001	13992.428322351499
      1.8500000000000001	14644.792184436599
      1.8600000000000001	15330.8499660669
      1.8700000000000001	16051.6331376244
      1.8799999999999999	16808.194149449399
      1.8899999999999999	17601.6067393663
      1.8999999999999999	18432.966243342598
      1.9099999999999999	19404.495336011201
      1.9199999999999999	20590.372025951801
      1.9299999999999999	21947.813028205499
      1.9399999999999999	23431.550410543801
      1.95	24993.771860090601
      1.96	26728.7728939224
      1.97	28741.652079154399
      1.98	30997.320593992201
      1.99	33458.6016588762
      2	36086.181089853802
      2.0099999999999998	39013.618737652898
      2.02	42359.838416325998
      2.0299999999999998	46059.224504644997
      2.04	50042.475246103699
      2.0499999999999998	54236.518208445799
      2.0600000000000001	58746.797659082702
      2.0699999999999998	63676.141877291899
      2.0800000000000001	68941.420064781894
      2.0899999999999999	74455.083406438294
      2.1000000000000001	80125.0668975015
      2.1099999999999999	86002.182021344503
      2.1200000000000001	92160.811147670698
      2.1299999999999999	98538.456708703205
      2.1400000000000001	105069.44372545699
      2.1499999999999999	111684.851235133
      2.1600000000000001	118408.179601506
      2.1699999999999999	125288.018279646
      2.1800000000000002	132289.347525522
      2.1899999999999999	139375.444087132
      2.2000000000000002	146507.84551539799
      2.21	153697.67708781199
      2.2200000000000002	160971.19468997
      2.23	168310.706409746
      2.2400000000000002	175697.70813550401
      2.25	183112.867117107
      2.2599999999999998	190562.07942148601
      2.27	198058.293008693
      2.2799999999999998	205591.81972850801
      2.29	213152.56273677599
      2.2999999999999998	220730.00858003399
      2.3100000000000001	228329.27950089
      2.3199999999999998	235958.45163531401
      2.3300000000000001	243610.93805077599
      2.3399999999999999	251279.89867863301
      2.3500000000000001	258958.23564330599
      2.3599999999999999	266650.901939923
      2.3700000000000001	274364.38676360098
      2.3799999999999999	282093.56667266699
      2.3900000000000001	289833.13745323999
      2.3999999999999999	297577.61093743698
      2.4100000000000001	305331.83684977097
      2.4199999999999999	313101.604613762
      2.4300000000000002	320882.59050863999
      2.4399999999999999	328670.32862724899
      2.4500000000000002	336460.208477045
      2.46	344256.95135211397
      2.4700000000000002	352065.93459878903
      2.48	359883.333872394
      2.4900000000000002	367705.20590462
      2.5	375527.486569128
      2.5099999999999998	383354.74020393001
      2.52	391192.03616092901
      2.5299999999999998	399035.89949514699
      2.54	406882.751933238
      2.5499999999999998	414728.910245181
      2.5600000000000001	422578.76363816799
      2.5699999999999998	430437.11692869797
      2.5800000000000001	438300.76249137998
      2.5899999999999999	446166.400771791
      2.6000000000000001	454030.638877719
      2.6099999999999999	461897.68227458303
      2.6200000000000001	469772.09371291997
      2.6299999999999999	477650.88384301699
      2.6400000000000001	485530.98028901801
      2.6499999999999999	493409.22640821798
      2.6600000000000001	501289.64206321503
      2.6699999999999999	509176.56297940703
      2.6800000000000002	517067.18622057198
      2.6899999999999999	524958.63312150503
      2.7000000000000002	532847.94818227994
      2.71	540738.96816328005
      2.7200000000000002	548635.81414560403
      2.73	556535.84725326602
      2.7400000000000002	564436.35907008301
      2.75	572334.570646076
      2.7599999999999998	580234.14081753802
      2.77	588138.98739331495
      2.7799999999999998	596046.61879333598
      2.79	603954.47927265998
      2.7999999999999998	611859.94802333496
      2.8100000000000001	619766.51269202295
      2.8199999999999998	627677.89870035695
      2.8300000000000001	635591.74848591594
      2.8399999999999999	643505.64506858401
      2.8500000000000001	651417.11123507004
      2.8599999999999999	659329.47100304405
      2.8700000000000001	667246.26792476198
      2.8799999999999999	675165.26748267806
      2.8900000000000001	683084.17998364998
      2.8999999999999999	691000.65981590701
      2.9100000000000001	698917.87528459297
      2.9199999999999999	706839.19821261195
      2.9300000000000002	714762.50776760001
      2.9399999999999999	722685.63176469097
      2.9500000000000002	730606.34598757199
      2.96	738527.671001093
      2.9700000000000002	746452.816620211
      2.98	754379.76752707502
      2.9900000000000002	762306.46051853395
  <EndBlock>
  <BeginBlock>
    <BlockName> = "N42SH"
    <Mu_x> = 1.05
    <Mu_y> = 1.05
    <H_c> = 897510
    <H_cAngle> = 0
    <J_re> = 0
    <J_im> = 0
    <Sigma> = 0
    <d_lam> = 0
    <Phi_h> = 0
    <Phi_hx> = 0
    <Phi_hy> = 0
    <LamType> = 0
    <LamFill> = 1
    <NStrands> = 0
    <WireD> = 0
    <BHPoints> = 0
  <EndBlock>
  <BeginBlock>
    <BlockName> = "Winding"
    <Mu_x> = 1
    <Mu_y> = 1
    <H_c> = 0
    <H_cAngle> = 0
    <J_re> = 0
    <J_im> = 0
    <Sigma> = 0
    <d_lam> = 0
    <Phi_h> = 0
    <Phi_hx> = 0
    <Phi_hy> = 0
    <LamType> = 0
    <LamFill> = 1
    <NStrands> = 0
    <WireD> = 0
    <BHPoints> = 0
  <EndBlock>
  <BeginBlock>
    <BlockName> = "Air"
    <Mu_x> = 1
    <Mu_y> = 1
    <H_c> = 0
    <H_cAngle> = 0
    <J_re> = 0
    <J_im> = 0
    <Sigma> = 0
    <d_lam> = 0
    <Phi_h> = 0
    <Phi_hx> = 0
    <Phi_hy> = 0
    <LamType> = 0
    <LamFill> = 1
    <NStrands> = 0
    <WireD> = 0
    <BHPoints> = 0
  <EndBlock>
[CircuitProps]  = 3
  <BeginCircuit>
    <CircuitName> = "Phase A"
    <TotalAmps_re> = 76.850999999999999
    <TotalAmps_im> = 0
    <CircuitType> = 1
  <EndCircuit>
  <BeginCircuit>
    <CircuitName> = "Phase B"
    <TotalAmps_re> = 21.500800000000002
    <TotalAmps_im> = 0
    <CircuitType> = 1
  <EndCircuit>
  <BeginCircuit>
    <CircuitName> = "Phase C"
    <TotalAmps_re> = -98.351799999999997
    <TotalAmps_im> = 0
    <CircuitType> = 1
  <EndCircuit>
[NumPoints] = 70
37.460000000000001	2.5	0	0
37.145314532772396	4.8902734319088781	0	0
35.536533840032199	12.110175995263099	0	0
34.613922732898629	14.337556242901	0	0
31.191311625765071	20.895063509461092	0	0
29.723649300989756	22.807758289871391	0	0
36.476894810183936	3.7936453454132804	0	0
34.252107094228855	13.105295097992901	0	0
29.693094884085397	21.523840647168456	0	0
36.215842425743837	5.7765350681609	0	0
35.508104068597063	5.6829697741303997	0	0
33.486740229498679	14.953054163015475	0	0
32.827333952130928	14.679500863287929	0	0
28.475572026067962	23.110547327750925	0	0
27.909435276561442	22.675648227634571	0	0
36.830629065544798	7.2805468638177571	0	0
33.691311625765067	16.564936490538901	0	0
28.255986976214441	24.720453070281696	0	0
35.769055572704765	3.700846313582518	0	0
33.592405050691845	12.832455840962492	0	0
29.126487638548415	21.089554709416831	0	0
45.070091217031255	2.5	0	0
42.88731748697829	14.079812537198206	0	0
37.781843944830975	24.700109117976719	0	0
50.921763990401992	3.6305261922199312	0	0
50.524030135609372	6.6516147555338287	0	0
48.246997636235911	16.686341343015911	0	0
47.080900976775176	19.501547713324975	0	0
42.284278125093813	28.605009906768238	0	0
40.429286221241348	31.022482422284398	0	0
35.960000000000001	0	0	0
58	0	0	0
34.734692713354896	9.3071328618866467	0	0
56.023697924765962	15.011504615946205	0	0
31.142273520088416	17.979999999999997	0	0
50.229473419497445	28.999999999999996	0	0
44.181412712490889	9.250183405752864	0	0
40.281843944830975	20.369982099054528	0	0
33.637134081225426	30.101600175292678	0	0
48.876032374339701	10.508102952916525	0	0
44.490924784802495	22.800096055052983	0	0
37.073834195910571	33.538300289977833	0	0
49.930319129028163	2.5	0	0
47.581937148827102	15.337732084361866	0	0
41.990924784802502	27.130223073975174	0	0
50.126296280816014	9.6727033188476259	0	0
45.914804317313731	22.316754083633747	0	0
38.574294317388294	33.439954937800103	0	0
41.012193308819761	41.012193308819754	0	0
25.427559851468253	25.427559851468246	0	0
24.709742594836026	23.296141759891178	0	0
22.665688600570014	21.988539213268897	0	0
24.7204530702817	24.720453070281696	0	0
10.910657633708428	10.910657633708427	0	0
22.298001391872692	6.3891126154519977	0	0
23.909900216913158	8.9192869528906549	0	0
21.482768835744331	8.3572581089451692	0	0
23.48820449400672	9.1879367570640671	0	0
23.213740868610682	10.59996429313532	0	0
25.594576621929811	21.339220371454587	0	0
23.105521061641628	10.111816289575355	0	0
33.18720612085491	3.0089912610755927	0	0
31.575307295814433	0.47881692363693601	0	0
15.43	0	0	0
34.960000000000001	0	0	0
33.861919277505208	2.5791515743981317	0	0
33.945286364084794	0.99956673628047266	0	0
20.284852847250878	11.24928313494963	0	0
21.100085403379239	9.281137641456457	0	0
25.767728313080294	22.120257177150535	0	0
[NumSegments] = 65
0	1	-1	0	0	0
2	3	-1	0	0	0
4	5	-1	0	0	0
6	0	-1	0	0	0
7	2	-1	0	0	0
8	4	-1	0	0	0
9	10	-1	0	0	0
11	12	-1	0	0	0
13	14	-1	0	0	0
1	15	-1	0	0	0
3	16	-1	0	0	0
5	17	-1	0	0	0
15	9	-1	0	0	0
16	11	-1	0	0	0
17	13	-1	0	0	0
18	6	-1	0	0	0
19	7	-1	0	0	0
20	8	-1	0	0	0
0	21	-1	0	0	0
2	22	-1	0	0	0
4	23	-1	0	0	0
24	25	-1	0	0	0
26	27	-1	0	0	0
28	29	-1	0	0	0
30	31	-1	4	0	0
36	15	-1	0	0	0
37	16	-1	0	0	0
38	17	-1	0	0	0
39	36	-1	0	0	0
40	37	-1	0	0	0
41	38	-1	0	0	0
21	42	-1	0	0	0
22	43	-1	0	0	0
23	44	-1	0	0	0
21	36	-1	0	0	0
22	37	-1	0	0	0
23	38	-1	0	0	0
25	45	-1	0	0	0
27	46	-1	0	0	0
29	47	-1	0	0	0
48	49	-1	4	0	0
50	51	-1	0	0	0
52	53	-1	2	0	0
54	55	-1	0	0	0
56	57	-1	0	0	0
58	59	-1	0	0	0
57	55	-1	0	0	0
60	58	-1	0	0	0
61	62	-1	0	0	0
54	56	-1	0	0	0
63	64	-1	2	0	0
65	66	-1	0	0	0
67	58	-1	0	0	0
55	61	-1	0	0	0
61	65	-1	0	0	0
59	51	-1	0	0	0
68	60	-1	0	0	0
51	67	-1	0	0	0
59	69	-1	0	0	0
69	50	-1	0	0	0
66	62	-1	0	0	0
67	68	-1	0	0	0
62	54	-1	0	0	0
64	30	-1	3	0	0
52	49	-1	3	0	0
[NumArcSegments] = 17
10	32	5.9070907399667671	5	0	0	0
12	34	5.9070907399667725	5	0	0	0
14	49	5.9070907399667618	5	0	0	0
30	18	5.9070907399667671	5	0	0	0
32	19	5.9070907399667618	5	0	0	0
34	20	5.9070907399667618	5	0	0	0
45	39	97.499999999993065	5	0	0	0
46	40	97.499999999993179	5	0	0	0
47	41	97.499999999993022	5	0	0	0
42	24	97.499999999993022	5	0	0	0
43	26	97.499999999993122	5	0	0	0
44	28	97.499999999992866	5	0	0	0
31	33	15	0.13	1	0	0
33	35	15	0.37	1	0	0
35	48	15	0.13	1	0	0
64	52	45	5	0	0	0
63	53	45	0.26000000000000001	1	0	0
[NumHoles] = 0
[NumBlockLabels] = 15
27.699999999999999	4.5	2	-1	0	-122.5	0	1	0
23.199999999999999	16.399999999999999	2	-1	0	-192.5	0	1	0
28.800000000000001	13	1	-1	0	0	0	1	0
51.299999999999997	14.9	1	-1	0	0	0	1	0
40.5	5.7000000000000002	3	-1	1	0	0	6	0
48	6.0999999999999996	3	-1	1	0	0	6	0
38.600000000000001	15.300000000000001	3	-1	3	0	0	-6	0
44.5	17.699999999999999	3	-1	3	0	0	-6	0
33.700000000000003	25	3	-1	2	0	0	6	0
37.799999999999997	28.5	3	-1	2	0	0	6	0
21.399999999999999	10.300000000000001	4	-1	0	0	0	1	0
22.600000000000001	7.4000000000000004	4	-1	0	0	0	1	0
33.5	1.3	4	-1	0	0	0	1	0
24.699999999999999	22	4	-1	0	0	0	1	0
31.199999999999999	17.100000000000001	4	-1	0	0	0	1	0
